version 2
1
2
.dc Vin1 0 3 20m{return}.kicad adjustpaths{return}.save all{return}.probe alli
3
2
I(Rg3)
 
1
V(/V_in)
 
1
V(/V_out2)
 
